pcf
* control data
             restart          estimation
       800       325         1         0        13
         1         1              single               point         1
   2.000000E+01  -3.000000E+00   3.000000E-01   1.000000E-02        -7
   1.000000E+01   1.000000E+01   1.000000E-03
   1.000000E-01
        -1   1.000000E-02         3         3   1.000000E-02         3
         0         0         0
* singular value decomposition
         1
  10000000    1.000000E-06
1
* parameter groups
p_inst:0               relative              1.0000000000E-02      0.0 switch                2.0000000000E+00      parabolic             1.0000000000E-05      5.0000000000E-01      smaller              
* parameter data
    pname:p_inst:0_ptype:gr_pstyle:m_i:0_j:0_x:0.00_y:0.00  log                   factor                1.0000000000E+00      5.0000000000E-01      1.5000000000E+00      p_inst:0              1.0000000000E+00      0.0000000000E+00      1          
    pname:p_inst:0_ptype:gr_pstyle:m_i:0_j:1_x:0.00_y:1.00  log                   factor                1.0000000000E+00      5.0000000000E-01      1.5000000000E+00      p_inst:0              1.0000000000E+00      0.0000000000E+00      1          
    pname:p_inst:0_ptype:gr_pstyle:m_i:0_j:2_x:0.00_y:2.00  log                   factor                1.0000000000E+00      5.0000000000E-01      1.5000000000E+00      p_inst:0              1.0000000000E+00      0.0000000000E+00      1          
    pname:p_inst:0_ptype:gr_pstyle:m_i:0_j:3_x:0.00_y:3.00  log                   factor                1.0000000000E+00      5.0000000000E-01      1.5000000000E+00      p_inst:0              1.0000000000E+00      0.0000000000E+00      1          
    pname:p_inst:0_ptype:gr_pstyle:m_i:0_j:4_x:0.00_y:4.00  log                   factor                1.0000000000E+00      5.0000000000E-01      1.5000000000E+00      p_inst:0              1.0000000000E+00      0.0000000000E+00      1          
    pname:p_inst:0_ptype:gr_pstyle:m_i:0_j:5_x:0.00_y:5.00  log                   factor                1.0000000000E+00      5.0000000000E-01      1.5000000000E+00      p_inst:0              1.0000000000E+00      0.0000000000E+00      1          
    pname:p_inst:0_ptype:gr_pstyle:m_i:0_j:6_x:0.00_y:6.00  log                   factor                1.0000000000E+00      5.0000000000E-01      1.5000000000E+00      p_inst:0              1.0000000000E+00      0.0000000000E+00      1          
    pname:p_inst:0_ptype:gr_pstyle:m_i:0_j:7_x:0.00_y:7.00  log                   factor                1.0000000000E+00      5.0000000000E-01      1.5000000000E+00      p_inst:0              1.0000000000E+00      0.0000000000E+00      1          
    pname:p_inst:0_ptype:gr_pstyle:m_i:0_j:8_x:0.00_y:8.00  log                   factor                1.0000000000E+00      5.0000000000E-01      1.5000000000E+00      p_inst:0              1.0000000000E+00      0.0000000000E+00      1          
    pname:p_inst:0_ptype:gr_pstyle:m_i:0_j:9_x:0.00_y:9.00  log                   factor                1.0000000000E+00      5.0000000000E-01      1.5000000000E+00      p_inst:0              1.0000000000E+00      0.0000000000E+00      1          
  pname:p_inst:0_ptype:gr_pstyle:m_i:0_j:10_x:0.00_y:10.00  log                   factor                1.0000000000E+00      5.0000000000E-01      1.5000000000E+00      p_inst:0              1.0000000000E+00      0.0000000000E+00      1          
  pname:p_inst:0_ptype:gr_pstyle:m_i:0_j:11_x:0.00_y:11.00  log                   factor                1.0000000000E+00      5.0000000000E-01      1.5000000000E+00      p_inst:0              1.0000000000E+00      0.0000000000E+00      1          
  pname:p_inst:0_ptype:gr_pstyle:m_i:0_j:12_x:0.00_y:12.00  log                   factor                1.0000000000E+00      5.0000000000E-01      1.5000000000E+00      p_inst:0              1.0000000000E+00      0.0000000000E+00      1          
  pname:p_inst:0_ptype:gr_pstyle:m_i:0_j:13_x:0.00_y:13.00  log                   factor                1.0000000000E+00      5.0000000000E-01      1.5000000000E+00      p_inst:0              1.0000000000E+00      0.0000000000E+00      1          
  pname:p_inst:0_ptype:gr_pstyle:m_i:0_j:14_x:0.00_y:14.00  log                   factor                1.0000000000E+00      5.0000000000E-01      1.5000000000E+00      p_inst:0              1.0000000000E+00      0.0000000000E+00      1          
  pname:p_inst:0_ptype:gr_pstyle:m_i:0_j:15_x:0.00_y:15.00  log                   factor                1.0000000000E+00      5.0000000000E-01      1.5000000000E+00      p_inst:0              1.0000000000E+00      0.0000000000E+00      1          
  pname:p_inst:0_ptype:gr_pstyle:m_i:0_j:16_x:0.00_y:16.00  log                   factor                1.0000000000E+00      5.0000000000E-01      1.5000000000E+00      p_inst:0              1.0000000000E+00      0.0000000000E+00      1          
  pname:p_inst:0_ptype:gr_pstyle:m_i:0_j:17_x:0.00_y:17.00  log                   factor                1.0000000000E+00      5.0000000000E-01      1.5000000000E+00      p_inst:0              1.0000000000E+00      0.0000000000E+00      1          
  pname:p_inst:0_ptype:gr_pstyle:m_i:0_j:18_x:0.00_y:18.00  log                   factor                1.0000000000E+00      5.0000000000E-01      1.5000000000E+00      p_inst:0              1.0000000000E+00      0.0000000000E+00      1          
  pname:p_inst:0_ptype:gr_pstyle:m_i:0_j:19_x:0.00_y:19.00  log                   factor                1.0000000000E+00      5.0000000000E-01      1.5000000000E+00      p_inst:0              1.0000000000E+00      0.0000000000E+00      1          
    pname:p_inst:0_ptype:gr_pstyle:m_i:1_j:0_x:1.00_y:0.00  log                   factor                1.0000000000E+00      5.0000000000E-01      1.5000000000E+00      p_inst:0              1.0000000000E+00      0.0000000000E+00      1          
    pname:p_inst:0_ptype:gr_pstyle:m_i:1_j:1_x:1.00_y:1.00  log                   factor                1.0000000000E+00      5.0000000000E-01      1.5000000000E+00      p_inst:0              1.0000000000E+00      0.0000000000E+00      1          
    pname:p_inst:0_ptype:gr_pstyle:m_i:1_j:2_x:1.00_y:2.00  log                   factor                1.0000000000E+00      5.0000000000E-01      1.5000000000E+00      p_inst:0              1.0000000000E+00      0.0000000000E+00      1          
    pname:p_inst:0_ptype:gr_pstyle:m_i:1_j:3_x:1.00_y:3.00  log                   factor                1.0000000000E+00      5.0000000000E-01      1.5000000000E+00      p_inst:0              1.0000000000E+00      0.0000000000E+00      1          
    pname:p_inst:0_ptype:gr_pstyle:m_i:1_j:4_x:1.00_y:4.00  log                   factor                1.0000000000E+00      5.0000000000E-01      1.5000000000E+00      p_inst:0              1.0000000000E+00      0.0000000000E+00      1          
    pname:p_inst:0_ptype:gr_pstyle:m_i:1_j:5_x:1.00_y:5.00  log                   factor                1.0000000000E+00      5.0000000000E-01      1.5000000000E+00      p_inst:0              1.0000000000E+00      0.0000000000E+00      1          
    pname:p_inst:0_ptype:gr_pstyle:m_i:1_j:6_x:1.00_y:6.00  log                   factor                1.0000000000E+00      5.0000000000E-01      1.5000000000E+00      p_inst:0              1.0000000000E+00      0.0000000000E+00      1          
    pname:p_inst:0_ptype:gr_pstyle:m_i:1_j:7_x:1.00_y:7.00  log                   factor                1.0000000000E+00      5.0000000000E-01      1.5000000000E+00      p_inst:0              1.0000000000E+00      0.0000000000E+00      1          
    pname:p_inst:0_ptype:gr_pstyle:m_i:1_j:8_x:1.00_y:8.00  log                   factor                1.0000000000E+00      5.0000000000E-01      1.5000000000E+00      p_inst:0              1.0000000000E+00      0.0000000000E+00      1          
    pname:p_inst:0_ptype:gr_pstyle:m_i:1_j:9_x:1.00_y:9.00  log                   factor                1.0000000000E+00      5.0000000000E-01      1.5000000000E+00      p_inst:0              1.0000000000E+00      0.0000000000E+00      1          
  pname:p_inst:0_ptype:gr_pstyle:m_i:1_j:10_x:1.00_y:10.00  log                   factor                1.0000000000E+00      5.0000000000E-01      1.5000000000E+00      p_inst:0              1.0000000000E+00      0.0000000000E+00      1          
  pname:p_inst:0_ptype:gr_pstyle:m_i:1_j:11_x:1.00_y:11.00  log                   factor                1.0000000000E+00      5.0000000000E-01      1.5000000000E+00      p_inst:0              1.0000000000E+00      0.0000000000E+00      1          
  pname:p_inst:0_ptype:gr_pstyle:m_i:1_j:12_x:1.00_y:12.00  log                   factor                1.0000000000E+00      5.0000000000E-01      1.5000000000E+00      p_inst:0              1.0000000000E+00      0.0000000000E+00      1          
  pname:p_inst:0_ptype:gr_pstyle:m_i:1_j:13_x:1.00_y:13.00  log                   factor                1.0000000000E+00      5.0000000000E-01      1.5000000000E+00      p_inst:0              1.0000000000E+00      0.0000000000E+00      1          
  pname:p_inst:0_ptype:gr_pstyle:m_i:1_j:14_x:1.00_y:14.00  log                   factor                1.0000000000E+00      5.0000000000E-01      1.5000000000E+00      p_inst:0              1.0000000000E+00      0.0000000000E+00      1          
  pname:p_inst:0_ptype:gr_pstyle:m_i:1_j:15_x:1.00_y:15.00  log                   factor                1.0000000000E+00      5.0000000000E-01      1.5000000000E+00      p_inst:0              1.0000000000E+00      0.0000000000E+00      1          
  pname:p_inst:0_ptype:gr_pstyle:m_i:1_j:16_x:1.00_y:16.00  log                   factor                1.0000000000E+00      5.0000000000E-01      1.5000000000E+00      p_inst:0              1.0000000000E+00      0.0000000000E+00      1          
  pname:p_inst:0_ptype:gr_pstyle:m_i:1_j:17_x:1.00_y:17.00  log                   factor                1.0000000000E+00      5.0000000000E-01      1.5000000000E+00      p_inst:0              1.0000000000E+00      0.0000000000E+00      1          
  pname:p_inst:0_ptype:gr_pstyle:m_i:1_j:18_x:1.00_y:18.00  log                   factor                1.0000000000E+00      5.0000000000E-01      1.5000000000E+00      p_inst:0              1.0000000000E+00      0.0000000000E+00      1          
  pname:p_inst:0_ptype:gr_pstyle:m_i:1_j:19_x:1.00_y:19.00  log                   factor                1.0000000000E+00      5.0000000000E-01      1.5000000000E+00      p_inst:0              1.0000000000E+00      0.0000000000E+00      1          
    pname:p_inst:0_ptype:gr_pstyle:m_i:2_j:0_x:2.00_y:0.00  log                   factor                1.0000000000E+00      5.0000000000E-01      1.5000000000E+00      p_inst:0              1.0000000000E+00      0.0000000000E+00      1          
    pname:p_inst:0_ptype:gr_pstyle:m_i:2_j:1_x:2.00_y:1.00  log                   factor                1.0000000000E+00      5.0000000000E-01      1.5000000000E+00      p_inst:0              1.0000000000E+00      0.0000000000E+00      1          
    pname:p_inst:0_ptype:gr_pstyle:m_i:2_j:2_x:2.00_y:2.00  log                   factor                1.0000000000E+00      5.0000000000E-01      1.5000000000E+00      p_inst:0              1.0000000000E+00      0.0000000000E+00      1          
    pname:p_inst:0_ptype:gr_pstyle:m_i:2_j:3_x:2.00_y:3.00  log                   factor                1.0000000000E+00      5.0000000000E-01      1.5000000000E+00      p_inst:0              1.0000000000E+00      0.0000000000E+00      1          
    pname:p_inst:0_ptype:gr_pstyle:m_i:2_j:4_x:2.00_y:4.00  log                   factor                1.0000000000E+00      5.0000000000E-01      1.5000000000E+00      p_inst:0              1.0000000000E+00      0.0000000000E+00      1          
    pname:p_inst:0_ptype:gr_pstyle:m_i:2_j:5_x:2.00_y:5.00  log                   factor                1.0000000000E+00      5.0000000000E-01      1.5000000000E+00      p_inst:0              1.0000000000E+00      0.0000000000E+00      1          
    pname:p_inst:0_ptype:gr_pstyle:m_i:2_j:6_x:2.00_y:6.00  log                   factor                1.0000000000E+00      5.0000000000E-01      1.5000000000E+00      p_inst:0              1.0000000000E+00      0.0000000000E+00      1          
    pname:p_inst:0_ptype:gr_pstyle:m_i:2_j:7_x:2.00_y:7.00  log                   factor                1.0000000000E+00      5.0000000000E-01      1.5000000000E+00      p_inst:0              1.0000000000E+00      0.0000000000E+00      1          
    pname:p_inst:0_ptype:gr_pstyle:m_i:2_j:8_x:2.00_y:8.00  log                   factor                1.0000000000E+00      5.0000000000E-01      1.5000000000E+00      p_inst:0              1.0000000000E+00      0.0000000000E+00      1          
    pname:p_inst:0_ptype:gr_pstyle:m_i:2_j:9_x:2.00_y:9.00  log                   factor                1.0000000000E+00      5.0000000000E-01      1.5000000000E+00      p_inst:0              1.0000000000E+00      0.0000000000E+00      1          
  pname:p_inst:0_ptype:gr_pstyle:m_i:2_j:10_x:2.00_y:10.00  log                   factor                1.0000000000E+00      5.0000000000E-01      1.5000000000E+00      p_inst:0              1.0000000000E+00      0.0000000000E+00      1          
  pname:p_inst:0_ptype:gr_pstyle:m_i:2_j:11_x:2.00_y:11.00  log                   factor                1.0000000000E+00      5.0000000000E-01      1.5000000000E+00      p_inst:0              1.0000000000E+00      0.0000000000E+00      1          
  pname:p_inst:0_ptype:gr_pstyle:m_i:2_j:12_x:2.00_y:12.00  log                   factor                1.0000000000E+00      5.0000000000E-01      1.5000000000E+00      p_inst:0              1.0000000000E+00      0.0000000000E+00      1          
  pname:p_inst:0_ptype:gr_pstyle:m_i:2_j:13_x:2.00_y:13.00  log                   factor                1.0000000000E+00      5.0000000000E-01      1.5000000000E+00      p_inst:0              1.0000000000E+00      0.0000000000E+00      1          
  pname:p_inst:0_ptype:gr_pstyle:m_i:2_j:14_x:2.00_y:14.00  log                   factor                1.0000000000E+00      5.0000000000E-01      1.5000000000E+00      p_inst:0              1.0000000000E+00      0.0000000000E+00      1          
  pname:p_inst:0_ptype:gr_pstyle:m_i:2_j:15_x:2.00_y:15.00  log                   factor                1.0000000000E+00      5.0000000000E-01      1.5000000000E+00      p_inst:0              1.0000000000E+00      0.0000000000E+00      1          
  pname:p_inst:0_ptype:gr_pstyle:m_i:2_j:16_x:2.00_y:16.00  log                   factor                1.0000000000E+00      5.0000000000E-01      1.5000000000E+00      p_inst:0              1.0000000000E+00      0.0000000000E+00      1          
  pname:p_inst:0_ptype:gr_pstyle:m_i:2_j:17_x:2.00_y:17.00  log                   factor                1.0000000000E+00      5.0000000000E-01      1.5000000000E+00      p_inst:0              1.0000000000E+00      0.0000000000E+00      1          
  pname:p_inst:0_ptype:gr_pstyle:m_i:2_j:18_x:2.00_y:18.00  log                   factor                1.0000000000E+00      5.0000000000E-01      1.5000000000E+00      p_inst:0              1.0000000000E+00      0.0000000000E+00      1          
  pname:p_inst:0_ptype:gr_pstyle:m_i:2_j:19_x:2.00_y:19.00  log                   factor                1.0000000000E+00      5.0000000000E-01      1.5000000000E+00      p_inst:0              1.0000000000E+00      0.0000000000E+00      1          
    pname:p_inst:0_ptype:gr_pstyle:m_i:3_j:0_x:3.00_y:0.00  log                   factor                1.0000000000E+00      5.0000000000E-01      1.5000000000E+00      p_inst:0              1.0000000000E+00      0.0000000000E+00      1          
    pname:p_inst:0_ptype:gr_pstyle:m_i:3_j:1_x:3.00_y:1.00  log                   factor                1.0000000000E+00      5.0000000000E-01      1.5000000000E+00      p_inst:0              1.0000000000E+00      0.0000000000E+00      1          
    pname:p_inst:0_ptype:gr_pstyle:m_i:3_j:2_x:3.00_y:2.00  log                   factor                1.0000000000E+00      5.0000000000E-01      1.5000000000E+00      p_inst:0              1.0000000000E+00      0.0000000000E+00      1          
    pname:p_inst:0_ptype:gr_pstyle:m_i:3_j:3_x:3.00_y:3.00  log                   factor                1.0000000000E+00      5.0000000000E-01      1.5000000000E+00      p_inst:0              1.0000000000E+00      0.0000000000E+00      1          
    pname:p_inst:0_ptype:gr_pstyle:m_i:3_j:4_x:3.00_y:4.00  log                   factor                1.0000000000E+00      5.0000000000E-01      1.5000000000E+00      p_inst:0              1.0000000000E+00      0.0000000000E+00      1          
    pname:p_inst:0_ptype:gr_pstyle:m_i:3_j:5_x:3.00_y:5.00  log                   factor                1.0000000000E+00      5.0000000000E-01      1.5000000000E+00      p_inst:0              1.0000000000E+00      0.0000000000E+00      1          
    pname:p_inst:0_ptype:gr_pstyle:m_i:3_j:6_x:3.00_y:6.00  log                   factor                1.0000000000E+00      5.0000000000E-01      1.5000000000E+00      p_inst:0              1.0000000000E+00      0.0000000000E+00      1          
    pname:p_inst:0_ptype:gr_pstyle:m_i:3_j:7_x:3.00_y:7.00  log                   factor                1.0000000000E+00      5.0000000000E-01      1.5000000000E+00      p_inst:0              1.0000000000E+00      0.0000000000E+00      1          
    pname:p_inst:0_ptype:gr_pstyle:m_i:3_j:8_x:3.00_y:8.00  log                   factor                1.0000000000E+00      5.0000000000E-01      1.5000000000E+00      p_inst:0              1.0000000000E+00      0.0000000000E+00      1          
    pname:p_inst:0_ptype:gr_pstyle:m_i:3_j:9_x:3.00_y:9.00  log                   factor                1.0000000000E+00      5.0000000000E-01      1.5000000000E+00      p_inst:0              1.0000000000E+00      0.0000000000E+00      1          
  pname:p_inst:0_ptype:gr_pstyle:m_i:3_j:10_x:3.00_y:10.00  log                   factor                1.0000000000E+00      5.0000000000E-01      1.5000000000E+00      p_inst:0              1.0000000000E+00      0.0000000000E+00      1          
  pname:p_inst:0_ptype:gr_pstyle:m_i:3_j:11_x:3.00_y:11.00  log                   factor                1.0000000000E+00      5.0000000000E-01      1.5000000000E+00      p_inst:0              1.0000000000E+00      0.0000000000E+00      1          
  pname:p_inst:0_ptype:gr_pstyle:m_i:3_j:12_x:3.00_y:12.00  log                   factor                1.0000000000E+00      5.0000000000E-01      1.5000000000E+00      p_inst:0              1.0000000000E+00      0.0000000000E+00      1          
  pname:p_inst:0_ptype:gr_pstyle:m_i:3_j:13_x:3.00_y:13.00  log                   factor                1.0000000000E+00      5.0000000000E-01      1.5000000000E+00      p_inst:0              1.0000000000E+00      0.0000000000E+00      1          
  pname:p_inst:0_ptype:gr_pstyle:m_i:3_j:14_x:3.00_y:14.00  log                   factor                1.0000000000E+00      5.0000000000E-01      1.5000000000E+00      p_inst:0              1.0000000000E+00      0.0000000000E+00      1          
  pname:p_inst:0_ptype:gr_pstyle:m_i:3_j:15_x:3.00_y:15.00  log                   factor                1.0000000000E+00      5.0000000000E-01      1.5000000000E+00      p_inst:0              1.0000000000E+00      0.0000000000E+00      1          
  pname:p_inst:0_ptype:gr_pstyle:m_i:3_j:16_x:3.00_y:16.00  log                   factor                1.0000000000E+00      5.0000000000E-01      1.5000000000E+00      p_inst:0              1.0000000000E+00      0.0000000000E+00      1          
  pname:p_inst:0_ptype:gr_pstyle:m_i:3_j:17_x:3.00_y:17.00  log                   factor                1.0000000000E+00      5.0000000000E-01      1.5000000000E+00      p_inst:0              1.0000000000E+00      0.0000000000E+00      1          
  pname:p_inst:0_ptype:gr_pstyle:m_i:3_j:18_x:3.00_y:18.00  log                   factor                1.0000000000E+00      5.0000000000E-01      1.5000000000E+00      p_inst:0              1.0000000000E+00      0.0000000000E+00      1          
  pname:p_inst:0_ptype:gr_pstyle:m_i:3_j:19_x:3.00_y:19.00  log                   factor                1.0000000000E+00      5.0000000000E-01      1.5000000000E+00      p_inst:0              1.0000000000E+00      0.0000000000E+00      1          
    pname:p_inst:0_ptype:gr_pstyle:m_i:4_j:0_x:4.00_y:0.00  log                   factor                1.0000000000E+00      5.0000000000E-01      1.5000000000E+00      p_inst:0              1.0000000000E+00      0.0000000000E+00      1          
    pname:p_inst:0_ptype:gr_pstyle:m_i:4_j:1_x:4.00_y:1.00  log                   factor                1.0000000000E+00      5.0000000000E-01      1.5000000000E+00      p_inst:0              1.0000000000E+00      0.0000000000E+00      1          
    pname:p_inst:0_ptype:gr_pstyle:m_i:4_j:2_x:4.00_y:2.00  log                   factor                1.0000000000E+00      5.0000000000E-01      1.5000000000E+00      p_inst:0              1.0000000000E+00      0.0000000000E+00      1          
    pname:p_inst:0_ptype:gr_pstyle:m_i:4_j:3_x:4.00_y:3.00  log                   factor                1.0000000000E+00      5.0000000000E-01      1.5000000000E+00      p_inst:0              1.0000000000E+00      0.0000000000E+00      1          
    pname:p_inst:0_ptype:gr_pstyle:m_i:4_j:4_x:4.00_y:4.00  log                   factor                1.0000000000E+00      5.0000000000E-01      1.5000000000E+00      p_inst:0              1.0000000000E+00      0.0000000000E+00      1          
    pname:p_inst:0_ptype:gr_pstyle:m_i:4_j:5_x:4.00_y:5.00  log                   factor                1.0000000000E+00      5.0000000000E-01      1.5000000000E+00      p_inst:0              1.0000000000E+00      0.0000000000E+00      1          
    pname:p_inst:0_ptype:gr_pstyle:m_i:4_j:6_x:4.00_y:6.00  log                   factor                1.0000000000E+00      5.0000000000E-01      1.5000000000E+00      p_inst:0              1.0000000000E+00      0.0000000000E+00      1          
    pname:p_inst:0_ptype:gr_pstyle:m_i:4_j:7_x:4.00_y:7.00  log                   factor                1.0000000000E+00      5.0000000000E-01      1.5000000000E+00      p_inst:0              1.0000000000E+00      0.0000000000E+00      1          
    pname:p_inst:0_ptype:gr_pstyle:m_i:4_j:8_x:4.00_y:8.00  log                   factor                1.0000000000E+00      5.0000000000E-01      1.5000000000E+00      p_inst:0              1.0000000000E+00      0.0000000000E+00      1          
    pname:p_inst:0_ptype:gr_pstyle:m_i:4_j:9_x:4.00_y:9.00  log                   factor                1.0000000000E+00      5.0000000000E-01      1.5000000000E+00      p_inst:0              1.0000000000E+00      0.0000000000E+00      1          
  pname:p_inst:0_ptype:gr_pstyle:m_i:4_j:10_x:4.00_y:10.00  log                   factor                1.0000000000E+00      5.0000000000E-01      1.5000000000E+00      p_inst:0              1.0000000000E+00      0.0000000000E+00      1          
  pname:p_inst:0_ptype:gr_pstyle:m_i:4_j:11_x:4.00_y:11.00  log                   factor                1.0000000000E+00      5.0000000000E-01      1.5000000000E+00      p_inst:0              1.0000000000E+00      0.0000000000E+00      1          
  pname:p_inst:0_ptype:gr_pstyle:m_i:4_j:12_x:4.00_y:12.00  log                   factor                1.0000000000E+00      5.0000000000E-01      1.5000000000E+00      p_inst:0              1.0000000000E+00      0.0000000000E+00      1          
  pname:p_inst:0_ptype:gr_pstyle:m_i:4_j:13_x:4.00_y:13.00  log                   factor                1.0000000000E+00      5.0000000000E-01      1.5000000000E+00      p_inst:0              1.0000000000E+00      0.0000000000E+00      1          
  pname:p_inst:0_ptype:gr_pstyle:m_i:4_j:14_x:4.00_y:14.00  log                   factor                1.0000000000E+00      5.0000000000E-01      1.5000000000E+00      p_inst:0              1.0000000000E+00      0.0000000000E+00      1          
  pname:p_inst:0_ptype:gr_pstyle:m_i:4_j:15_x:4.00_y:15.00  log                   factor                1.0000000000E+00      5.0000000000E-01      1.5000000000E+00      p_inst:0              1.0000000000E+00      0.0000000000E+00      1          
  pname:p_inst:0_ptype:gr_pstyle:m_i:4_j:16_x:4.00_y:16.00  log                   factor                1.0000000000E+00      5.0000000000E-01      1.5000000000E+00      p_inst:0              1.0000000000E+00      0.0000000000E+00      1          
  pname:p_inst:0_ptype:gr_pstyle:m_i:4_j:17_x:4.00_y:17.00  log                   factor                1.0000000000E+00      5.0000000000E-01      1.5000000000E+00      p_inst:0              1.0000000000E+00      0.0000000000E+00      1          
  pname:p_inst:0_ptype:gr_pstyle:m_i:4_j:18_x:4.00_y:18.00  log                   factor                1.0000000000E+00      5.0000000000E-01      1.5000000000E+00      p_inst:0              1.0000000000E+00      0.0000000000E+00      1          
  pname:p_inst:0_ptype:gr_pstyle:m_i:4_j:19_x:4.00_y:19.00  log                   factor                1.0000000000E+00      5.0000000000E-01      1.5000000000E+00      p_inst:0              1.0000000000E+00      0.0000000000E+00      1          
    pname:p_inst:0_ptype:gr_pstyle:m_i:5_j:0_x:5.00_y:0.00  log                   factor                1.0000000000E+00      5.0000000000E-01      1.5000000000E+00      p_inst:0              1.0000000000E+00      0.0000000000E+00      1          
    pname:p_inst:0_ptype:gr_pstyle:m_i:5_j:1_x:5.00_y:1.00  log                   factor                1.0000000000E+00      5.0000000000E-01      1.5000000000E+00      p_inst:0              1.0000000000E+00      0.0000000000E+00      1          
    pname:p_inst:0_ptype:gr_pstyle:m_i:5_j:2_x:5.00_y:2.00  log                   factor                1.0000000000E+00      5.0000000000E-01      1.5000000000E+00      p_inst:0              1.0000000000E+00      0.0000000000E+00      1          
    pname:p_inst:0_ptype:gr_pstyle:m_i:5_j:3_x:5.00_y:3.00  log                   factor                1.0000000000E+00      5.0000000000E-01      1.5000000000E+00      p_inst:0              1.0000000000E+00      0.0000000000E+00      1          
    pname:p_inst:0_ptype:gr_pstyle:m_i:5_j:4_x:5.00_y:4.00  log                   factor                1.0000000000E+00      5.0000000000E-01      1.5000000000E+00      p_inst:0              1.0000000000E+00      0.0000000000E+00      1          
    pname:p_inst:0_ptype:gr_pstyle:m_i:5_j:5_x:5.00_y:5.00  log                   factor                1.0000000000E+00      5.0000000000E-01      1.5000000000E+00      p_inst:0              1.0000000000E+00      0.0000000000E+00      1          
    pname:p_inst:0_ptype:gr_pstyle:m_i:5_j:6_x:5.00_y:6.00  log                   factor                1.0000000000E+00      5.0000000000E-01      1.5000000000E+00      p_inst:0              1.0000000000E+00      0.0000000000E+00      1          
    pname:p_inst:0_ptype:gr_pstyle:m_i:5_j:7_x:5.00_y:7.00  log                   factor                1.0000000000E+00      5.0000000000E-01      1.5000000000E+00      p_inst:0              1.0000000000E+00      0.0000000000E+00      1          
    pname:p_inst:0_ptype:gr_pstyle:m_i:5_j:8_x:5.00_y:8.00  log                   factor                1.0000000000E+00      5.0000000000E-01      1.5000000000E+00      p_inst:0              1.0000000000E+00      0.0000000000E+00      1          
    pname:p_inst:0_ptype:gr_pstyle:m_i:5_j:9_x:5.00_y:9.00  log                   factor                1.0000000000E+00      5.0000000000E-01      1.5000000000E+00      p_inst:0              1.0000000000E+00      0.0000000000E+00      1          
  pname:p_inst:0_ptype:gr_pstyle:m_i:5_j:10_x:5.00_y:10.00  log                   factor                1.0000000000E+00      5.0000000000E-01      1.5000000000E+00      p_inst:0              1.0000000000E+00      0.0000000000E+00      1          
  pname:p_inst:0_ptype:gr_pstyle:m_i:5_j:11_x:5.00_y:11.00  log                   factor                1.0000000000E+00      5.0000000000E-01      1.5000000000E+00      p_inst:0              1.0000000000E+00      0.0000000000E+00      1          
  pname:p_inst:0_ptype:gr_pstyle:m_i:5_j:12_x:5.00_y:12.00  log                   factor                1.0000000000E+00      5.0000000000E-01      1.5000000000E+00      p_inst:0              1.0000000000E+00      0.0000000000E+00      1          
  pname:p_inst:0_ptype:gr_pstyle:m_i:5_j:13_x:5.00_y:13.00  log                   factor                1.0000000000E+00      5.0000000000E-01      1.5000000000E+00      p_inst:0              1.0000000000E+00      0.0000000000E+00      1          
  pname:p_inst:0_ptype:gr_pstyle:m_i:5_j:14_x:5.00_y:14.00  log                   factor                1.0000000000E+00      5.0000000000E-01      1.5000000000E+00      p_inst:0              1.0000000000E+00      0.0000000000E+00      1          
  pname:p_inst:0_ptype:gr_pstyle:m_i:5_j:15_x:5.00_y:15.00  log                   factor                1.0000000000E+00      5.0000000000E-01      1.5000000000E+00      p_inst:0              1.0000000000E+00      0.0000000000E+00      1          
  pname:p_inst:0_ptype:gr_pstyle:m_i:5_j:16_x:5.00_y:16.00  log                   factor                1.0000000000E+00      5.0000000000E-01      1.5000000000E+00      p_inst:0              1.0000000000E+00      0.0000000000E+00      1          
  pname:p_inst:0_ptype:gr_pstyle:m_i:5_j:17_x:5.00_y:17.00  log                   factor                1.0000000000E+00      5.0000000000E-01      1.5000000000E+00      p_inst:0              1.0000000000E+00      0.0000000000E+00      1          